McPAT (version 0.8 of Aug, 2010) is computing the target processor...
 
Warning: icache array structure cannot satisfy latency constraint.
Warning: dcache array structure cannot satisfy latency constraint.

McPAT (version 0.8 of Aug, 2010) results (current print level is 2, please increase print level to see the details in components): 
*****************************************************************************************
  Technology 90 nm
  Using Long Channel Devices When Appropriate
  Interconnect metal projection= aggressive interconnect technology projection
  Core clock Rate(MHz) 1200

*****************************************************************************************
Processor: 
  Area = 903.909 mm^2
  Peak Power = 46.5485 W
  Total Leakage = 20.3196 W
  Peak Dynamic = 26.229 W
  Subthreshold Leakage = 17.6921 W
  Gate Leakage = 2.62744 W
  Runtime Dynamic = 14.3949 W

  Total Cores: 1 cores 
  Device Type= ITRS high performance device type
    Area = 768.671 mm^2
    Peak Dynamic = 15.0573 W
    Subthreshold Leakage = 14.6517 W
    Gate Leakage = 2.28121 W
    Runtime Dynamic = 14.2378 W

  Total L2s: 
  Device Type= ITRS high performance device type
    Area = 116.308 mm^2
    Peak Dynamic = 5.51367 W
    Subthreshold Leakage = 2.41316 W
    Gate Leakage = 0.242513 W
    Runtime Dynamic = 1.24606e-08 W

  Total First Level Directory: 
  Device Type= ITRS high performance device type
    Area = 2.19368 mm^2
    Peak Dynamic = 0.84647 W
    Subthreshold Leakage = 0.0561311 W
    Gate Leakage = 0.00802003 W
    Runtime Dynamic = 0 W

  Total NoCs (Network/Bus): 
  Device Type= ITRS high performance device type
    Area = 8.87598 mm^2
    Peak Dynamic = 3.67515 W
    Subthreshold Leakage = 0.488892 W
    Gate Leakage = 0.0852308 W
    Runtime Dynamic = 0.00177379 W

  Total MCs: 1 Memory Controllers 
  Device Type= ITRS high performance device type
    Area = 7.86025 mm^2
    Peak Dynamic = 1.13642 W
    Subthreshold Leakage = 0.0822383 W
    Gate Leakage = 0.0104639 W
    Runtime Dynamic = 0.155358 W

*****************************************************************************************
Core:
      Area = 768.671 mm^2
      Peak Dynamic = 15.0573 W
      Subthreshold Leakage = 14.6517 W
      Gate Leakage = 2.28121 W
      Runtime Dynamic = 14.2378 W

      Instruction Fetch Unit:
        Area = 362.681 mm^2
        Peak Dynamic = 6.71938 W
        Subthreshold Leakage = 7.05096 W
        Gate Leakage = 1.10403 W
        Runtime Dynamic = 8.52589 W

      Load Store Unit:
        Area = 399.153 mm^2
        Peak Dynamic = 6.63752 W
        Subthreshold Leakage = 7.04876 W
        Gate Leakage = 1.10386 W
        Runtime Dynamic = 5.29001 W

      Memory Management Unit:
        Area = 1.2133 mm^2
        Peak Dynamic = 0.251316 W
        Subthreshold Leakage = 0.0159246 W
        Gate Leakage = 0.00390473 W
        Runtime Dynamic = 0.163693 W

      Execution Unit:
        Area = 2.29564 mm^2
        Peak Dynamic = 1.44904 W
        Subthreshold Leakage = 0.202088 W
        Gate Leakage = 0.0266896 W
        Runtime Dynamic = 0.258174 W

*****************************************************************************************
L2
      Area = 29.0771 mm^2
      Peak Dynamic = 1.37842 W
      Subthreshold Leakage = 0.603289 W
      Gate Leakage = 0.0606283 W
      Runtime Dynamic = 1.24606e-08 W

*****************************************************************************************
First Level Directory
      Area = 2.19368 mm^2
      Peak Dynamic = 0.84647 W
      Subthreshold Leakage = 0.0561311 W
      Gate Leakage = 0.00802003 W
      Runtime Dynamic = 0 W

*****************************************************************************************
Memory Controller:
      Area = 7.86025 mm^2
      Peak Dynamic = 1.13642 W
      Subthreshold Leakage = 0.0822383 W
      Gate Leakage = 0.0104639 W
      Runtime Dynamic = 0.155358 W

      Front End Engine:
        Area = 0.63078 mm^2
        Peak Dynamic = 0.0549429 W
        Subthreshold Leakage = 0.00242476 W
        Gate Leakage = 0.00025524 W
        Runtime Dynamic = 0.00740358 W

      Transaction Engine:
        Area = 2.59502 mm^2
        Peak Dynamic = 0.569482 W
        Subthreshold Leakage = 0.0286491 W
        Gate Leakage = 0.00366442 W
        Runtime Dynamic = 0.076738 W

      PHY:
        Area = 4.63445 mm^2
        Peak Dynamic = 0.512 W
        Subthreshold Leakage = 0.0511644 W
        Gate Leakage = 0.00654429 W
        Runtime Dynamic = 0.0712163 W

*****************************************************************************************
NOC
      Area = 8.87598 mm^2
      Peak Dynamic = 3.67515 W
      Subthreshold Leakage = 0.488892 W
      Gate Leakage = 0.0852308 W
      Runtime Dynamic = 0.00177379 W

      Router: 
        Area = 4.43799 mm^2
        Peak Dynamic = 1.83757 W
        Subthreshold Leakage = 0.244446 W
        Gate Leakage = 0.0426154 W
        Runtime Dynamic = 0.00177379 W

*****************************************************************************************
