McPAT (version 0.8 of Aug, 2010) is computing the target processor...
 
Warning: icache array structure cannot satisfy latency constraint.
Warning: dcache array structure cannot satisfy latency constraint.

McPAT (version 0.8 of Aug, 2010) results (current print level is 2, please increase print level to see the details in components): 
*****************************************************************************************
  Technology 90 nm
  Using Long Channel Devices When Appropriate
  Interconnect metal projection= aggressive interconnect technology projection
  Core clock Rate(MHz) 1500

*****************************************************************************************
Processor: 
  Area = 467.531 mm^2
  Peak Power = 33.7378 W
  Total Leakage = 8.39184 W
  Peak Dynamic = 25.3459 W
  Subthreshold Leakage = 7.3756 W
  Gate Leakage = 1.01624 W
  Runtime Dynamic = 12.7254 W

  Total Cores: 1 cores 
  Device Type= ITRS high performance device type
    Area = 332.292 mm^2
    Peak Dynamic = 14.1742 W
    Subthreshold Leakage = 4.33518 W
    Gate Leakage = 0.670013 W
    Runtime Dynamic = 12.5957 W

  Total L2s: 
  Device Type= ITRS high performance device type
    Area = 116.308 mm^2
    Peak Dynamic = 5.51367 W
    Subthreshold Leakage = 2.41316 W
    Gate Leakage = 0.242513 W
    Runtime Dynamic = 1.57893e-09 W

  Total First Level Directory: 
  Device Type= ITRS high performance device type
    Area = 2.19368 mm^2
    Peak Dynamic = 0.84647 W
    Subthreshold Leakage = 0.0561311 W
    Gate Leakage = 0.00802003 W
    Runtime Dynamic = 0 W

  Total NoCs (Network/Bus): 
  Device Type= ITRS high performance device type
    Area = 8.87598 mm^2
    Peak Dynamic = 3.67515 W
    Subthreshold Leakage = 0.488892 W
    Gate Leakage = 0.0852308 W
    Runtime Dynamic = 0.00065463 W

  Total MCs: 1 Memory Controllers 
  Device Type= ITRS high performance device type
    Area = 7.86025 mm^2
    Peak Dynamic = 1.13642 W
    Subthreshold Leakage = 0.0822383 W
    Gate Leakage = 0.0104639 W
    Runtime Dynamic = 0.129038 W

*****************************************************************************************
Core:
      Area = 332.292 mm^2
      Peak Dynamic = 14.1742 W
      Subthreshold Leakage = 4.33518 W
      Gate Leakage = 0.670013 W
      Runtime Dynamic = 12.5957 W

      Instruction Fetch Unit:
        Area = 153.593 mm^2
        Peak Dynamic = 5.43975 W
        Subthreshold Leakage = 1.85148 W
        Gate Leakage = 0.292249 W
        Runtime Dynamic = 6.30958 W

      Load Store Unit:
        Area = 170.147 mm^2
        Peak Dynamic = 5.52815 W
        Subthreshold Leakage = 1.85998 W
        Gate Leakage = 0.294293 W
        Runtime Dynamic = 5.60529 W

      Memory Management Unit:
        Area = 1.27751 mm^2
        Peak Dynamic = 0.405089 W
        Subthreshold Leakage = 0.0192968 W
        Gate Leakage = 0.0049902 W
        Runtime Dynamic = 0.297339 W

      Execution Unit:
        Area = 3.47025 mm^2
        Peak Dynamic = 2.80125 W
        Subthreshold Leakage = 0.222601 W
        Gate Leakage = 0.0296426 W
        Runtime Dynamic = 0.383525 W

*****************************************************************************************
L2
      Area = 29.0771 mm^2
      Peak Dynamic = 1.37842 W
      Subthreshold Leakage = 0.603289 W
      Gate Leakage = 0.0606283 W
      Runtime Dynamic = 1.57893e-09 W

*****************************************************************************************
First Level Directory
      Area = 2.19368 mm^2
      Peak Dynamic = 0.84647 W
      Subthreshold Leakage = 0.0561311 W
      Gate Leakage = 0.00802003 W
      Runtime Dynamic = 0 W

*****************************************************************************************
Memory Controller:
      Area = 7.86025 mm^2
      Peak Dynamic = 1.13642 W
      Subthreshold Leakage = 0.0822383 W
      Gate Leakage = 0.0104639 W
      Runtime Dynamic = 0.129038 W

      Front End Engine:
        Area = 0.63078 mm^2
        Peak Dynamic = 0.0549429 W
        Subthreshold Leakage = 0.00242476 W
        Gate Leakage = 0.00025524 W
        Runtime Dynamic = 0.00619892 W

      Transaction Engine:
        Area = 2.59502 mm^2
        Peak Dynamic = 0.569482 W
        Subthreshold Leakage = 0.0286491 W
        Gate Leakage = 0.00366442 W
        Runtime Dynamic = 0.0642517 W

      PHY:
        Area = 4.63445 mm^2
        Peak Dynamic = 0.512 W
        Subthreshold Leakage = 0.0511644 W
        Gate Leakage = 0.00654429 W
        Runtime Dynamic = 0.0585871 W

*****************************************************************************************
NOC
      Area = 8.87598 mm^2
      Peak Dynamic = 3.67515 W
      Subthreshold Leakage = 0.488892 W
      Gate Leakage = 0.0852308 W
      Runtime Dynamic = 0.00065463 W

      Router: 
        Area = 4.43799 mm^2
        Peak Dynamic = 1.83757 W
        Subthreshold Leakage = 0.244446 W
        Gate Leakage = 0.0426154 W
        Runtime Dynamic = 0.00065463 W

*****************************************************************************************
