McPAT (version 0.8 of Aug, 2010) is computing the target processor...
 
Warning: icache array structure cannot satisfy latency constraint.
Warning: dcache array structure cannot satisfy latency constraint.

McPAT (version 0.8 of Aug, 2010) results (current print level is 2, please increase print level to see the details in components): 
*****************************************************************************************
  Technology 90 nm
  Using Long Channel Devices When Appropriate
  Interconnect metal projection= aggressive interconnect technology projection
  Core clock Rate(MHz) 1500

*****************************************************************************************
Processor: 
  Area = 464.674 mm^2
  Peak Power = 32.3375 W
  Total Leakage = 8.28781 W
  Peak Dynamic = 24.0497 W
  Subthreshold Leakage = 7.28614 W
  Gate Leakage = 1.00167 W
  Runtime Dynamic = 11.5482 W

  Total Cores: 1 cores 
  Device Type= ITRS high performance device type
    Area = 329.435 mm^2
    Peak Dynamic = 12.878 W
    Subthreshold Leakage = 4.24573 W
    Gate Leakage = 0.655443 W
    Runtime Dynamic = 11.3802 W

  Total L2s: 
  Device Type= ITRS high performance device type
    Area = 116.308 mm^2
    Peak Dynamic = 5.51367 W
    Subthreshold Leakage = 2.41316 W
    Gate Leakage = 0.242513 W
    Runtime Dynamic = 1.55757e-08 W

  Total First Level Directory: 
  Device Type= ITRS high performance device type
    Area = 2.19368 mm^2
    Peak Dynamic = 0.84647 W
    Subthreshold Leakage = 0.0561311 W
    Gate Leakage = 0.00802003 W
    Runtime Dynamic = 0 W

  Total NoCs (Network/Bus): 
  Device Type= ITRS high performance device type
    Area = 8.87598 mm^2
    Peak Dynamic = 3.67515 W
    Subthreshold Leakage = 0.488892 W
    Gate Leakage = 0.0852308 W
    Runtime Dynamic = 0.00221724 W

  Total MCs: 1 Memory Controllers 
  Device Type= ITRS high performance device type
    Area = 7.86025 mm^2
    Peak Dynamic = 1.13642 W
    Subthreshold Leakage = 0.0822383 W
    Gate Leakage = 0.0104639 W
    Runtime Dynamic = 0.165787 W

*****************************************************************************************
Core:
      Area = 329.435 mm^2
      Peak Dynamic = 12.878 W
      Subthreshold Leakage = 4.24573 W
      Gate Leakage = 0.655443 W
      Runtime Dynamic = 11.3802 W

      Instruction Fetch Unit:
        Area = 153.521 mm^2
        Peak Dynamic = 5.39688 W
        Subthreshold Leakage = 1.84795 W
        Gate Leakage = 0.29115 W
        Runtime Dynamic = 6.60742 W

      Load Store Unit:
        Area = 169.077 mm^2
        Peak Dynamic = 5.35566 W
        Subthreshold Leakage = 1.84576 W
        Gate Leakage = 0.290978 W
        Runtime Dynamic = 4.24549 W

      Memory Management Unit:
        Area = 1.2133 mm^2
        Peak Dynamic = 0.314145 W
        Subthreshold Leakage = 0.0159246 W
        Gate Leakage = 0.00390473 W
        Runtime Dynamic = 0.204617 W

      Execution Unit:
        Area = 2.29564 mm^2
        Peak Dynamic = 1.8113 W
        Subthreshold Leakage = 0.202088 W
        Gate Leakage = 0.0266896 W
        Runtime Dynamic = 0.322718 W

*****************************************************************************************
L2
      Area = 29.0771 mm^2
      Peak Dynamic = 1.37842 W
      Subthreshold Leakage = 0.603289 W
      Gate Leakage = 0.0606283 W
      Runtime Dynamic = 1.55757e-08 W

*****************************************************************************************
First Level Directory
      Area = 2.19368 mm^2
      Peak Dynamic = 0.84647 W
      Subthreshold Leakage = 0.0561311 W
      Gate Leakage = 0.00802003 W
      Runtime Dynamic = 0 W

*****************************************************************************************
Memory Controller:
      Area = 7.86025 mm^2
      Peak Dynamic = 1.13642 W
      Subthreshold Leakage = 0.0822383 W
      Gate Leakage = 0.0104639 W
      Runtime Dynamic = 0.165787 W

      Front End Engine:
        Area = 0.63078 mm^2
        Peak Dynamic = 0.0549429 W
        Subthreshold Leakage = 0.00242476 W
        Gate Leakage = 0.00025524 W
        Runtime Dynamic = 0.0078809 W

      Transaction Engine:
        Area = 2.59502 mm^2
        Peak Dynamic = 0.569482 W
        Subthreshold Leakage = 0.0286491 W
        Gate Leakage = 0.00366442 W
        Runtime Dynamic = 0.0816854 W

      PHY:
        Area = 4.63445 mm^2
        Peak Dynamic = 0.512 W
        Subthreshold Leakage = 0.0511644 W
        Gate Leakage = 0.00654429 W
        Runtime Dynamic = 0.0762203 W

*****************************************************************************************
NOC
      Area = 8.87598 mm^2
      Peak Dynamic = 3.67515 W
      Subthreshold Leakage = 0.488892 W
      Gate Leakage = 0.0852308 W
      Runtime Dynamic = 0.00221724 W

      Router: 
        Area = 4.43799 mm^2
        Peak Dynamic = 1.83757 W
        Subthreshold Leakage = 0.244446 W
        Gate Leakage = 0.0426154 W
        Runtime Dynamic = 0.00221724 W

*****************************************************************************************
