McPAT (version 0.8 of Aug, 2010) is computing the target processor...
 
Warning: icache array structure cannot satisfy latency constraint.
Warning: dcache array structure cannot satisfy latency constraint.

McPAT (version 0.8 of Aug, 2010) results (current print level is 2, please increase print level to see the details in components): 
*****************************************************************************************
  Technology 90 nm
  Using Long Channel Devices When Appropriate
  Interconnect metal projection= aggressive interconnect technology projection
  Core clock Rate(MHz) 1500

*****************************************************************************************
Processor: 
  Area = 465.433 mm^2
  Peak Power = 32.7443 W
  Total Leakage = 8.32833 W
  Peak Dynamic = 24.416 W
  Subthreshold Leakage = 7.32141 W
  Gate Leakage = 1.00692 W
  Runtime Dynamic = 12.3479 W

  Total Cores: 1 cores 
  Device Type= ITRS high performance device type
    Area = 330.195 mm^2
    Peak Dynamic = 13.2443 W
    Subthreshold Leakage = 4.281 W
    Gate Leakage = 0.660688 W
    Runtime Dynamic = 12.2114 W

  Total L2s: 
  Device Type= ITRS high performance device type
    Area = 116.308 mm^2
    Peak Dynamic = 5.51367 W
    Subthreshold Leakage = 2.41316 W
    Gate Leakage = 0.242513 W
    Runtime Dynamic = 4.5994e-09 W

  Total First Level Directory: 
  Device Type= ITRS high performance device type
    Area = 2.19368 mm^2
    Peak Dynamic = 0.84647 W
    Subthreshold Leakage = 0.0561311 W
    Gate Leakage = 0.00802003 W
    Runtime Dynamic = 0 W

  Total NoCs (Network/Bus): 
  Device Type= ITRS high performance device type
    Area = 8.87598 mm^2
    Peak Dynamic = 3.67515 W
    Subthreshold Leakage = 0.488892 W
    Gate Leakage = 0.0852308 W
    Runtime Dynamic = 0.000930103 W

  Total MCs: 1 Memory Controllers 
  Device Type= ITRS high performance device type
    Area = 7.86025 mm^2
    Peak Dynamic = 1.13642 W
    Subthreshold Leakage = 0.0822383 W
    Gate Leakage = 0.0104639 W
    Runtime Dynamic = 0.135516 W

*****************************************************************************************
Core:
      Area = 330.195 mm^2
      Peak Dynamic = 13.2443 W
      Subthreshold Leakage = 4.281 W
      Gate Leakage = 0.660688 W
      Runtime Dynamic = 12.2114 W

      Instruction Fetch Unit:
        Area = 153.547 mm^2
        Peak Dynamic = 5.41195 W
        Subthreshold Leakage = 1.84914 W
        Gate Leakage = 0.291519 W
        Runtime Dynamic = 6.55542 W

      Load Store Unit:
        Area = 169.152 mm^2
        Peak Dynamic = 5.38408 W
        Subthreshold Leakage = 1.84811 W
        Gate Leakage = 0.291457 W
        Runtime Dynamic = 5.08249 W

      Memory Management Unit:
        Area = 1.23482 mm^2
        Peak Dynamic = 0.344626 W
        Subthreshold Leakage = 0.0170548 W
        Gate Leakage = 0.00426854 W
        Runtime Dynamic = 0.238956 W

      Execution Unit:
        Area = 2.69555 mm^2
        Peak Dynamic = 2.1036 W
        Subthreshold Leakage = 0.208775 W
        Gate Leakage = 0.027664 W
        Runtime Dynamic = 0.334547 W

*****************************************************************************************
L2
      Area = 29.0771 mm^2
      Peak Dynamic = 1.37842 W
      Subthreshold Leakage = 0.603289 W
      Gate Leakage = 0.0606283 W
      Runtime Dynamic = 4.5994e-09 W

*****************************************************************************************
First Level Directory
      Area = 2.19368 mm^2
      Peak Dynamic = 0.84647 W
      Subthreshold Leakage = 0.0561311 W
      Gate Leakage = 0.00802003 W
      Runtime Dynamic = 0 W

*****************************************************************************************
Memory Controller:
      Area = 7.86025 mm^2
      Peak Dynamic = 1.13642 W
      Subthreshold Leakage = 0.0822383 W
      Gate Leakage = 0.0104639 W
      Runtime Dynamic = 0.135516 W

      Front End Engine:
        Area = 0.63078 mm^2
        Peak Dynamic = 0.0549429 W
        Subthreshold Leakage = 0.00242476 W
        Gate Leakage = 0.00025524 W
        Runtime Dynamic = 0.00649544 W

      Transaction Engine:
        Area = 2.59502 mm^2
        Peak Dynamic = 0.569482 W
        Subthreshold Leakage = 0.0286491 W
        Gate Leakage = 0.00366442 W
        Runtime Dynamic = 0.0673251 W

      PHY:
        Area = 4.63445 mm^2
        Peak Dynamic = 0.512 W
        Subthreshold Leakage = 0.0511644 W
        Gate Leakage = 0.00654429 W
        Runtime Dynamic = 0.0616957 W

*****************************************************************************************
NOC
      Area = 8.87598 mm^2
      Peak Dynamic = 3.67515 W
      Subthreshold Leakage = 0.488892 W
      Gate Leakage = 0.0852308 W
      Runtime Dynamic = 0.000930103 W

      Router: 
        Area = 4.43799 mm^2
        Peak Dynamic = 1.83757 W
        Subthreshold Leakage = 0.244446 W
        Gate Leakage = 0.0426154 W
        Runtime Dynamic = 0.000930103 W

*****************************************************************************************
